<?xml version="1.0" encoding="UTF-8"?>

<!-- generated on 2026-05-23T01:39:42.672870+07:00 by Eclipse SUMO netconvert 1.26.0
<netconvertConfiguration xmlns:xsi="http://www.w3.org/2001/XMLSchema-instance" xsi:noNamespaceSchemaLocation="http://sumo.dlr.de/xsd/netconvertConfiguration.xsd">

    <input>
        <node-files value="road4lane.nod.xml"/>
        <edge-files value="road4lane.edg.xml"/>
    </input>

    <output>
        <output-file value="road4lane.net.xml"/>
    </output>

</netconvertConfiguration>
-->

<net version="1.20" junctionCornerDetail="5" limitTurnSpeed="5.50" xmlns:xsi="http://www.w3.org/2001/XMLSchema-instance" xsi:noNamespaceSchemaLocation="http://sumo.dlr.de/xsd/net_file.xsd">

    <location netOffset="0.00,0.00" convBoundary="0.00,0.00,1000.00,0.00" origBoundary="0.00,0.00,1000.00,0.00" projParameter="!"/>

    <edge id=":n1_0" function="internal">
        <lane id=":n1_0_0" index="0" speed="3.65" length="4.67" shape="0.00,1.60 -1.20,0.80 -1.60,0.00 -1.20,-0.80 0.00,-1.60"/>
    </edge>
    <edge id=":n2_0" function="internal">
        <lane id=":n2_0_0" index="0" speed="13.89" length="0.10" shape="500.00,4.80 500.00,4.80"/>
        <lane id=":n2_0_1" index="1" speed="13.89" length="0.10" shape="500.00,1.60 500.00,1.60"/>
    </edge>
    <edge id=":n2_2" function="internal">
        <lane id=":n2_2_0" index="0" speed="13.89" length="0.10" shape="500.00,-4.80 500.00,-4.80"/>
        <lane id=":n2_2_1" index="1" speed="13.89" length="0.10" shape="500.00,-1.60 500.00,-1.60"/>
    </edge>
    <edge id=":n3_0" function="internal">
        <lane id=":n3_0_0" index="0" speed="3.65" length="4.67" shape="1000.00,-1.60 1001.20,-0.80 1001.60,0.00 1001.20,0.80 1000.00,1.60"/>
    </edge>

    <edge id="edge_A1" from="n1" to="n2" priority="-1">
        <lane id="edge_A1_0" index="0" speed="13.89" length="500.00" shape="0.00,-4.80 500.00,-4.80"/>
        <lane id="edge_A1_1" index="1" speed="13.89" length="500.00" shape="0.00,-1.60 500.00,-1.60"/>
    </edge>
    <edge id="edge_A2" from="n2" to="n3" priority="-1">
        <lane id="edge_A2_0" index="0" speed="13.89" length="500.00" shape="500.00,-4.80 1000.00,-4.80"/>
        <lane id="edge_A2_1" index="1" speed="13.89" length="500.00" shape="500.00,-1.60 1000.00,-1.60"/>
    </edge>
    <edge id="edge_B1" from="n3" to="n2" priority="-1">
        <lane id="edge_B1_0" index="0" speed="13.89" length="500.00" shape="1000.00,4.80 500.00,4.80"/>
        <lane id="edge_B1_1" index="1" speed="13.89" length="500.00" shape="1000.00,1.60 500.00,1.60"/>
    </edge>
    <edge id="edge_B2" from="n2" to="n1" priority="-1">
        <lane id="edge_B2_0" index="0" speed="13.89" length="500.00" shape="500.00,4.80 0.00,4.80"/>
        <lane id="edge_B2_1" index="1" speed="13.89" length="500.00" shape="500.00,1.60 0.00,1.60"/>
    </edge>

    <junction id="n1" type="priority" x="0.00" y="0.00" incLanes="edge_B2_0 edge_B2_1" intLanes=":n1_0_0" shape="0.00,0.00 0.00,6.40 0.00,0.00">
        <request index="0" response="0" foes="0" cont="0"/>
    </junction>
    <junction id="n2" type="priority" x="500.00" y="0.00" incLanes="edge_B1_0 edge_B1_1 edge_A1_0 edge_A1_1" intLanes=":n2_0_0 :n2_0_1 :n2_2_0 :n2_2_1" shape="500.00,6.40 500.00,-6.40 500.00,6.40">
        <request index="0" response="0000" foes="0000" cont="0"/>
        <request index="1" response="0000" foes="0000" cont="0"/>
        <request index="2" response="0000" foes="0000" cont="0"/>
        <request index="3" response="0000" foes="0000" cont="0"/>
    </junction>
    <junction id="n3" type="priority" x="1000.00" y="0.00" incLanes="edge_A2_0 edge_A2_1" intLanes=":n3_0_0" shape="1000.00,0.00 1000.00,-6.40 1000.00,0.00">
        <request index="0" response="0" foes="0" cont="0"/>
    </junction>

    <connection from="edge_A1" to="edge_A2" fromLane="0" toLane="0" via=":n2_2_0" dir="s" state="M"/>
    <connection from="edge_A1" to="edge_A2" fromLane="1" toLane="1" via=":n2_2_1" dir="s" state="M"/>
    <connection from="edge_A2" to="edge_B1" fromLane="1" toLane="1" via=":n3_0_0" dir="t" state="M"/>
    <connection from="edge_B1" to="edge_B2" fromLane="0" toLane="0" via=":n2_0_0" dir="s" state="M"/>
    <connection from="edge_B1" to="edge_B2" fromLane="1" toLane="1" via=":n2_0_1" dir="s" state="M"/>
    <connection from="edge_B2" to="edge_A1" fromLane="1" toLane="1" via=":n1_0_0" dir="t" state="M"/>

    <connection from=":n1_0" to="edge_A1" fromLane="0" toLane="1" dir="t" state="M"/>
    <connection from=":n2_0" to="edge_B2" fromLane="0" toLane="0" dir="s" state="M"/>
    <connection from=":n2_0" to="edge_B2" fromLane="1" toLane="1" dir="s" state="M"/>
    <connection from=":n2_2" to="edge_A2" fromLane="0" toLane="0" dir="s" state="M"/>
    <connection from=":n2_2" to="edge_A2" fromLane="1" toLane="1" dir="s" state="M"/>
    <connection from=":n3_0" to="edge_B1" fromLane="0" toLane="1" dir="t" state="M"/>

</net>
