<?xml version="1.0" encoding="UTF-8"?>
<net version="1.16" junctionCornerDetail="5" limitTurnSpeed="5.50"
     xmlns:xsi="http://www.w3.org/2001/XMLSchema-instance"
     xsi:noNamespaceSchemaLocation="http://sumo.dlr.de/xsd/net_file.xsd">

  <location netOffset="0.00,0.00" convBoundary="0.00,0.00,1000.00,40.00"
            origBoundary="-10000000000.00,-10000000000.00,10000000000.00,10000000000.00"
            projParameter="!"/>

  <!-- Edge types -->
  <type id="highway" priority="3" numLanes="2" speed="27.78" allow="all" oneway="0"/>

  <!-- Junctions -->
  <junction id="J_WEST" type="dead_end" x="0.00" y="20.00"
            incLanes="edgeB_0 edgeB_1" intLanes=""
            shape="0.00,40.00 0.00,0.00"/>
  <junction id="J_EAST" type="dead_end" x="1000.00" y="20.00"
            incLanes="edgeA_0 edgeA_1" intLanes=""
            shape="1000.00,0.00 1000.00,40.00"/>

  <!-- Edge A: West→East, 2 lanes (lane 0 = right/slow, lane 1 = left/fast) -->
  <edge id="edgeA" from="J_WEST" to="J_EAST" priority="3" numLanes="2"
        speed="27.78" spreadType="right" name="Highway East">
    <lane id="edgeA_0" index="0" speed="27.78" length="1000.00" width="3.60"
          shape="0.00,1.80 1000.00,1.80"/>
    <lane id="edgeA_1" index="1" speed="27.78" length="1000.00" width="3.60"
          shape="0.00,5.40 1000.00,5.40"/>
  </edge>

  <!-- Edge B: East→West, 2 lanes -->
  <edge id="edgeB" from="J_EAST" to="J_WEST" priority="3" numLanes="2"
        speed="27.78" spreadType="right" name="Highway West">
    <lane id="edgeB_0" index="0" speed="27.78" length="1000.00" width="3.60"
          shape="1000.00,34.60 0.00,34.60"/>
    <lane id="edgeB_1" index="1" speed="27.78" length="1000.00" width="3.60"
          shape="1000.00,38.20 0.00,38.20"/>
  </edge>

</net>
