<routes>
    <vType id="car" accel="2.6" decel="4.5" length="5" maxSpeed="13.89"/>

    <!-- Chiб»Ѓu A: TГўyв†’ДђГґng (nA1в†’nA3), 2 lГ n -->
    <flow id="flow_A_L0" type="car" begin="0" end="9999" vehsPerHour="900"
          from="edge_A1" to="edge_A2" departLane="0" departSpeed="max"/>
    <flow id="flow_A_L1" type="car" begin="0" end="9999" vehsPerHour="900"
          from="edge_A1" to="edge_A2" departLane="1" departSpeed="max"/>

    <!-- Chiб»Ѓu B: ДђГґngв†’TГўy (nB1в†’nB3), 2 lГ n вЂ” NGЖЇб»ўC chiб»Ѓu A -->
    <flow id="flow_B_L0" type="car" begin="0" end="9999" vehsPerHour="900"
          from="edge_B1" to="edge_B2" departLane="0" departSpeed="max"/>
    <flow id="flow_B_L1" type="car" begin="0" end="9999" vehsPerHour="900"
          from="edge_B1" to="edge_B2" departLane="1" departSpeed="max"/>
</routes>